3
Lattice="7.032058291507576 0.0 0.0 -3.5160291457537887 6.089964484499853 0.0 0.0 0.0 36.59" Properties=species:S:1:pos:R:3:forces:R:3 timestep=10 stress="-0.002165300276613511 -0.0011449758558925499 0.0 -0.0011449758558925499 -0.0021329946891744276 0.0 0.0 0.0 0.0" energy=-75.17089920500057 pbc="T T T"
Mo      -0.13700900       0.99227000      18.19030000       0.69656149       0.43770026       0.67974643
Te       1.69605000       1.98513000      20.03010000      -1.03895799       0.90736254       0.50629235
Te       1.70674000       2.06960000      16.47260000      -0.39642844       0.16426686      -0.34999382
